/*--------------------------------*- C++ -*----------------------------------*\
| =========                 |                                                 |
| \\      /  F ield         | OpenFOAM: The Open Source CFD Toolbox           |
|  \\    /   O peration     | Version:  2406                                  |
|   \\  /    A nd           | Website:  www.openfoam.com                      |
|    \\/     M anipulation  |                                                 |
\*---------------------------------------------------------------------------*/
FoamFile
{
    version     2.0;
    format      ascii;
    arch        "LSB;label=32;scalar=64";
    class       featureEdgeMesh;
    location    "constant/triSurface";
    object      airfoil.eMesh;
}
// * * * * * * * * * * * * * * * * * * * * * * * * * * * * * * * * * * * * * //


// points:

72
(
(1.2 0.5 5.4385242e-33)
(1.2 0.5 1)
(1 0.5 0)
(1 0.5 1)
(1.193908 0.5015409 -3.4214367e-19)
(1.193908 0.5015409 1)
(1.1889706 0.50263464 -5.8501516e-19)
(1.1889706 0.50263464 1)
(1.1836029 0.50367922 -8.1695165e-19)
(1.1836029 0.50367922 1)
(1.1770012 0.50488824 -1.0854067e-18)
(1.1770012 0.50488824 1)
(1.1446559 0.51030582 -2.2883517e-18)
(1.1446559 0.51030582 1)
(1.1127583 0.51454157 -3.2288706e-18)
(1.1127583 0.51454157 1)
(1.0809321 0.51736093 -3.8549053e-18)
(1.0809321 0.51736093 1)
(1.0642022 0.51795536 -3.9868931e-18)
(1.0642022 0.51795536 1)
(1.0575696 0.51800704 -3.998364e-18)
(1.0575696 0.51800704 1)
(1.0520213 0.517901 -3.974827e-18)
(1.0520213 0.517901 1)
(1.0294572 0.51594919 -3.5414294e-18)
(1.0294572 0.51594919 1)
(1.0235295 0.51485509 -3.2984948e-18)
(1.0235295 0.51485509 1)
(1.0186542 0.51369476 -3.0408543e-18)
(1.0186542 0.51369476 1)
(1.0110508 0.51114291 -2.4742275e-18)
(1.0110508 0.51114291 1)
(1.006997 0.50907034 -2.0140158e-18)
(1.006997 0.50907034 1)
(1.0039314 0.50707257 -1.5704302e-18)
(1.0039314 0.50707257 1)
(1.0015497 0.50442922 -9.8348022e-19)
(1.0015497 0.50442922 1)
(1.0015497 0.49557081 9.8348022e-19)
(1.0015497 0.49557081 1)
(1.0039314 0.4929274 1.5704302e-18)
(1.0039314 0.4929274 1)
(1.006997 0.49092969 2.0140158e-18)
(1.006997 0.49092969 1)
(1.0110508 0.48885706 2.4742275e-18)
(1.0110508 0.48885706 1)
(1.0186542 0.48630521 3.0408543e-18)
(1.0186542 0.48630521 1)
(1.0235295 0.48514491 3.2984948e-18)
(1.0235295 0.48514491 1)
(1.0294572 0.48405081 3.5414294e-18)
(1.0294572 0.48405081 1)
(1.0520213 0.48209897 3.974827e-18)
(1.0520213 0.48209897 1)
(1.0575696 0.48199296 3.998364e-18)
(1.0575696 0.48199296 1)
(1.0642022 0.48204464 3.9868931e-18)
(1.0642022 0.48204464 1)
(1.0809321 0.48263904 3.8549053e-18)
(1.0809321 0.48263904 1)
(1.1127583 0.48545846 3.2288706e-18)
(1.1127583 0.48545846 1)
(1.1446559 0.48969418 2.2883517e-18)
(1.1446559 0.48969418 1)
(1.1770012 0.49511176 1.0854067e-18)
(1.1770012 0.49511176 1)
(1.1836029 0.49632078 8.1695165e-19)
(1.1836029 0.49632078 1)
(1.1889706 0.49736533 5.8501516e-19)
(1.1889706 0.49736533 1)
(1.193908 0.49845913 3.4214367e-19)
(1.193908 0.49845913 1)
)


// edges:

74
(
(1 0)
(0 4)
(5 1)
(4 6)
(7 5)
(6 8)
(9 7)
(8 10)
(11 9)
(10 12)
(13 11)
(12 14)
(15 13)
(14 16)
(17 15)
(16 18)
(19 17)
(18 20)
(21 19)
(20 22)
(23 21)
(22 24)
(25 23)
(24 26)
(27 25)
(26 28)
(29 27)
(28 30)
(31 29)
(30 32)
(33 31)
(32 34)
(35 33)
(34 36)
(37 35)
(36 2)
(2 3)
(3 37)
(2 38)
(39 3)
(38 40)
(41 39)
(40 42)
(43 41)
(42 44)
(45 43)
(44 46)
(47 45)
(46 48)
(49 47)
(48 50)
(51 49)
(50 52)
(53 51)
(52 54)
(55 53)
(54 56)
(57 55)
(56 58)
(59 57)
(58 60)
(61 59)
(60 62)
(63 61)
(62 64)
(65 63)
(64 66)
(67 65)
(66 68)
(69 67)
(68 70)
(71 69)
(70 0)
(1 71)
)

// * * * * * * * * * * * * * * * * * * * * * * * * * * * * * * * * * * * * * //


// ************************************************************************* //
