/*--------------------------------*- C++ -*----------------------------------*\
| =========                 |                                                 |
| \\      /  F ield         | OpenFOAM: The Open Source CFD Toolbox           |
|  \\    /   O peration     | Version:  2406                                  |
|   \\  /    A nd           | Website:  www.openfoam.com                      |
|    \\/     M anipulation  |                                                 |
\*---------------------------------------------------------------------------*/
FoamFile
{
    version     2.0;
    format      ascii;
    arch        "LSB;label=32;scalar=64";
    class       extendedFeatureEdgeMesh;
    location    "constant/extendedFeatureEdgeMesh";
    object      airfoil.extendedFeatureEdgeMesh;
}
// * * * * * * * * * * * * * * * * * * * * * * * * * * * * * * * * * * * * * //

// points

72
(
(1.2 0.5 5.4385242e-33)
(1.2 0.5 1)
(1 0.5 0)
(1 0.5 1)
(1.193908 0.5015409 -3.4214367e-19)
(1.193908 0.5015409 1)
(1.1889706 0.50263464 -5.8501516e-19)
(1.1889706 0.50263464 1)
(1.1836029 0.50367922 -8.1695165e-19)
(1.1836029 0.50367922 1)
(1.1770012 0.50488824 -1.0854067e-18)
(1.1770012 0.50488824 1)
(1.1446559 0.51030582 -2.2883517e-18)
(1.1446559 0.51030582 1)
(1.1127583 0.51454157 -3.2288706e-18)
(1.1127583 0.51454157 1)
(1.0809321 0.51736093 -3.8549053e-18)
(1.0809321 0.51736093 1)
(1.0642022 0.51795536 -3.9868931e-18)
(1.0642022 0.51795536 1)
(1.0575696 0.51800704 -3.998364e-18)
(1.0575696 0.51800704 1)
(1.0520213 0.517901 -3.974827e-18)
(1.0520213 0.517901 1)
(1.0294572 0.51594919 -3.5414294e-18)
(1.0294572 0.51594919 1)
(1.0235295 0.51485509 -3.2984948e-18)
(1.0235295 0.51485509 1)
(1.0186542 0.51369476 -3.0408543e-18)
(1.0186542 0.51369476 1)
(1.0110508 0.51114291 -2.4742275e-18)
(1.0110508 0.51114291 1)
(1.006997 0.50907034 -2.0140158e-18)
(1.006997 0.50907034 1)
(1.0039314 0.50707257 -1.5704302e-18)
(1.0039314 0.50707257 1)
(1.0015497 0.50442922 -9.8348022e-19)
(1.0015497 0.50442922 1)
(1.0015497 0.49557081 9.8348022e-19)
(1.0015497 0.49557081 1)
(1.0039314 0.4929274 1.5704302e-18)
(1.0039314 0.4929274 1)
(1.006997 0.49092969 2.0140158e-18)
(1.006997 0.49092969 1)
(1.0110508 0.48885706 2.4742275e-18)
(1.0110508 0.48885706 1)
(1.0186542 0.48630521 3.0408543e-18)
(1.0186542 0.48630521 1)
(1.0235295 0.48514491 3.2984948e-18)
(1.0235295 0.48514491 1)
(1.0294572 0.48405081 3.5414294e-18)
(1.0294572 0.48405081 1)
(1.0520213 0.48209897 3.974827e-18)
(1.0520213 0.48209897 1)
(1.0575696 0.48199296 3.998364e-18)
(1.0575696 0.48199296 1)
(1.0642022 0.48204464 3.9868931e-18)
(1.0642022 0.48204464 1)
(1.0809321 0.48263904 3.8549053e-18)
(1.0809321 0.48263904 1)
(1.1127583 0.48545846 3.2288706e-18)
(1.1127583 0.48545846 1)
(1.1446559 0.48969418 2.2883517e-18)
(1.1446559 0.48969418 1)
(1.1770012 0.49511176 1.0854067e-18)
(1.1770012 0.49511176 1)
(1.1836029 0.49632078 8.1695165e-19)
(1.1836029 0.49632078 1)
(1.1889706 0.49736533 5.8501516e-19)
(1.1889706 0.49736533 1)
(1.193908 0.49845913 3.4214367e-19)
(1.193908 0.49845913 1)
)

// edges

74
(
(1 0)
(0 4)
(5 1)
(4 6)
(7 5)
(6 8)
(9 7)
(8 10)
(11 9)
(10 12)
(13 11)
(12 14)
(15 13)
(14 16)
(17 15)
(16 18)
(19 17)
(18 20)
(21 19)
(20 22)
(23 21)
(22 24)
(25 23)
(24 26)
(27 25)
(26 28)
(29 27)
(28 30)
(31 29)
(30 32)
(33 31)
(32 34)
(35 33)
(34 36)
(37 35)
(36 2)
(2 3)
(3 37)
(2 38)
(39 3)
(38 40)
(41 39)
(40 42)
(43 41)
(42 44)
(45 43)
(44 46)
(47 45)
(46 48)
(49 47)
(48 50)
(51 49)
(50 52)
(53 51)
(52 54)
(55 53)
(54 56)
(57 55)
(56 58)
(59 57)
(58 60)
(61 59)
(60 62)
(63 61)
(62 64)
(65 63)
(64 66)
(67 65)
(66 68)
(69 67)
(68 70)
(71 69)
(70 0)
(1 71)
)

// concaveStart mixedStart nonFeatureStart
4 4 4
// internalStart flatStart openStart multipleStart
74 74 74 74
// normals

138
(
(0.24521289 0.96946926 -0)
(0.24520843 -0.96947038 0)
(-5.4311722e-22 -2.220437e-16 -1)
(0.24521289 0.96946926 0)
(0 0 1)
(0.21627897 0.97633161 0)
(2.4833151e-21 -2.220437e-16 -1)
(0.21627897 0.97633161 0)
(0 0 1)
(0.19102195 0.98158577 0)
(-1.1652066e-21 -2.2204584e-16 -1)
(0.19102195 0.98158577 0)
(0 0 1)
(0.18014199 0.98364062 0)
(-3.0687787e-22 -2.2204504e-16 -1)
(0.18014199 0.98364062 0)
(0 0 1)
(0.16519114 0.98626157 0)
(-1.9526253e-23 -2.2204463e-16 -1)
(0.16519114 0.98626157 0)
(0 0 1)
(0.13163614 0.9912981 0)
(-5.6995877e-23 -2.2204376e-16 -1)
(0.13163614 0.9912981 0)
(0 0 1)
(0.088240723 0.99609918 0)
(1.4293708e-22 -2.2204695e-16 -1)
(0.088240723 0.99609918 0)
(0 0 1)
(0.035508906 0.99936936 0)
(-1.4205621e-22 -2.2204234e-16 -1)
(0.035508906 0.99936936 0)
(0 0 1)
(0.007791201 0.99996965 0)
(-5.0634287e-22 -2.2203756e-16 -1)
(0.007791201 0.99996965 0)
(0 0 1)
(-0.01910787 0.99981743 0)
(1.7467427e-21 -2.2206189e-16 -1)
(-0.01910787 0.99981743 0)
(0 0 1)
(-0.086179208 0.99627965 0)
(-1.3938999e-21 -2.2203252e-16 -1)
(-0.086179208 0.99627965 0)
(0 0 1)
(-0.18150923 0.98338924 0)
(-0.18150923 0.98338924 0)
(-0.23153316 0.97282701 0)
(-1.9585476e-22 -2.2204111e-16 -1)
(-0.23153316 0.97282701 0)
(0 0 1)
(-0.31817795 0.94803101 0)
(5.2576945e-23 -2.2204533e-16 -1)
(-0.31817795 0.94803101 0)
(0 0 1)
(-0.45521809 0.89037997 0)
(4.0487384e-22 -2.2204929e-16 -1)
(-0.45521809 0.89037997 0)
(0 0 1)
(-0.54597508 0.83780142 0)
(-2.0639544e-22 -2.220402e-16 -1)
(-0.54597508 0.83780142 0)
(0 0 1)
(-0.74292086 0.66937926 0)
(3.5410467e-22 -2.2204837e-16 -1)
(-0.74292086 0.66937926 0)
(0 0 1)
(-0.94389202 0.33025424 0)
(-8.1793173e-23 -2.2204357e-16 -1)
(-0.94389202 0.33025424 0)
(-0.94389132 -0.33025622 -0)
(0 0 1)
(-5.8526819e-23 -2.2204512e-16 -1)
(-0.94389132 -0.33025622 0)
(0 0 1)
(-0.74292836 -0.66937093 -0)
(1.4180297e-22 -2.2204291e-16 -1)
(-0.74292836 -0.66937093 0)
(0 0 1)
(-0.54596364 -0.83780887 -0)
(-1.6587596e-22 -2.220474e-16 -1)
(-0.54596364 -0.83780887 0)
(0 0 1)
(-0.45522846 -0.89037467 -0)
(2.8304278e-22 -2.2204156e-16 -1)
(-0.45522846 -0.89037467 0)
(0 0 1)
(-0.31817795 -0.94803101 -0)
(-5.2576945e-23 -2.2204533e-16 -1)
(-0.31817795 -0.94803101 0)
(0 0 1)
(-0.23152753 -0.97282835 -0)
(-2.5021203e-22 -2.2204869e-16 -1)
(-0.23152753 -0.97282835 0)
(0 0 1)
(-0.18150923 -0.98338924 -0)
(8.4198237e-22 -2.2203551e-16 -1)
(-0.18150923 -0.98338924 0)
(0 0 1)
(-0.086180514 -0.99627954 -0)
(-0.086180514 -0.99627954 0)
(-0.019102502 -0.99981753 -0)
(-2.438623e-22 -2.2204566e-16 -1)
(-0.019102502 -0.99981753 0)
(0 0 1)
(0.007791201 -0.99996965 0)
(5.0634287e-22 -2.2203756e-16 -1)
(0.007791201 -0.99996965 0)
(0 0 1)
(0.035507128 -0.99936942 0)
(-1.2773242e-22 -2.2204588e-16 -1)
(0.035507128 -0.99936942 0)
(0 0 1)
(0.088242574 -0.99609902 0)
(1.0376104e-23 -2.2204399e-16 -1)
(0.088242574 -0.99609902 0)
(0 0 1)
(0.13163523 -0.99129822 0)
(-1.5443167e-23 -2.2204478e-16 -1)
(0.13163523 -0.99129822 0)
(0 0 1)
(0.16519114 -0.98626157 0)
(9.2616528e-24 -2.2204456e-16 -1)
(0.16519114 -0.98626157 0)
(0 -0 1)
(0.18014199 -0.98364062 0)
(2.3097694e-22 -2.2204463e-16 -1)
(0.18014199 -0.98364062 0)
(0 -0 1)
(0.1910167 -0.98158679 0)
(-2.2344285e-22 -2.2204504e-16 -1)
(0.1910167 -0.98158679 0)
(0 -0 1)
(0.21629021 -0.97632912 0)
(6.7175689e-22 -2.2204584e-16 -1)
(0.21629021 -0.97632912 0)
(0 -0 1)
(0.24520843 -0.96947038 0)
)

// normal volume types

138
(
0
0
0
0
0
0
0
0
0
0
0
0
0
0
0
0
0
0
0
0
0
0
0
0
0
0
0
0
0
0
0
0
0
0
0
0
0
0
0
0
0
0
0
0
0
0
0
0
0
0
0
0
0
0
0
0
0
0
0
0
0
0
0
0
0
0
0
0
0
0
0
0
0
0
0
0
0
0
0
0
0
0
0
0
0
0
0
0
0
0
0
0
0
0
0
0
0
0
0
0
0
0
0
0
0
0
0
0
0
0
0
0
0
0
0
0
0
0
0
0
0
0
0
0
0
0
0
0
0
0
0
0
0
0
0
0
0
0
)

// normalDirections

74
(
2(1 -1)
2(1 -1)
2(1 -1)
2(1 -1)
2(1 -1)
2(1 -1)
2(1 -1)
2(1 -1)
2(1 -1)
2(1 -1)
2(1 -1)
2(1 -1)
2(1 -1)
2(1 -1)
2(1 -1)
2(1 -1)
2(1 -1)
2(1 -1)
2(1 -1)
2(1 -1)
2(1 -1)
2(1 -1)
2(1 -1)
2(1 -1)
2(1 -1)
2(1 -1)
2(1 -1)
2(1 -1)
2(1 -1)
2(1 -1)
2(1 -1)
2(1 -1)
2(1 -1)
2(1 -1)
2(1 -1)
2(1 -1)
2(1 -1)
2(1 -1)
2(1 -1)
2(1 -1)
2(1 -1)
2(1 -1)
2(1 -1)
2(1 -1)
2(1 -1)
2(1 -1)
2(1 -1)
2(1 -1)
2(1 -1)
2(1 -1)
2(1 -1)
2(1 -1)
2(1 -1)
2(1 -1)
2(1 -1)
2(1 -1)
2(1 -1)
2(1 -1)
2(1 -1)
2(1 -1)
2(1 -1)
2(1 -1)
2(1 -1)
2(1 -1)
2(1 -1)
2(1 -1)
2(1 -1)
2(1 -1)
2(1 -1)
2(1 -1)
2(1 -1)
2(1 -1)
2(1 -1)
2(1 -1)
)

// edgeNormals

74
(
2(0 1)
2(0 2)
2(3 4)
2(5 6)
2(7 8)
2(9 10)
2(11 12)
2(13 14)
2(15 16)
2(17 18)
2(19 20)
2(21 22)
2(23 24)
2(25 26)
2(27 28)
2(29 30)
2(31 32)
2(33 34)
2(35 36)
2(37 38)
2(39 40)
2(41 42)
2(43 44)
2(45 42)
2(46 44)
2(47 48)
2(49 50)
2(51 52)
2(53 54)
2(55 56)
2(57 58)
2(59 60)
2(61 62)
2(63 64)
2(65 66)
2(67 68)
2(69 70)
2(69 71)
2(70 72)
2(73 74)
2(75 76)
2(77 78)
2(79 80)
2(81 82)
2(83 84)
2(85 86)
2(87 88)
2(89 90)
2(91 92)
2(93 94)
2(95 96)
2(97 98)
2(99 96)
2(100 98)
2(101 102)
2(103 104)
2(105 106)
2(107 108)
2(109 110)
2(111 112)
2(113 114)
2(115 116)
2(117 118)
2(119 120)
2(121 122)
2(123 124)
2(125 126)
2(127 128)
2(129 130)
2(131 132)
2(133 134)
2(135 136)
2(137 2)
2(1 4)
)

// featurePointNormals

4
(
3(0 1 2)
3(0 1 4)
3(67 68 70)
3(69 70 71)
)

// featurePointEdges

4
(
3(0 72 1)
3(2 73 0)
3(36 38 35)
3(36 39 37)
)

// regionEdges
0()


// ************************************************************************* //
