/*--------------------------------*- C++ -*----------------------------------*\
| =========                 |                                                 |
| \\      /  F ield         | OpenFOAM: The Open Source CFD Toolbox           |
|  \\    /   O peration     | Version:  2406                                  |
|   \\  /    A nd           | Website:  www.openfoam.com                      |
|    \\/     M anipulation  |                                                 |
\*---------------------------------------------------------------------------*/
FoamFile
{
    version     2.0;
    format      ascii;
    arch        "LSB;label=32;scalar=64";
    class       extendedFeatureEdgeMesh;
    location    "constant/extendedFeatureEdgeMesh";
    object      cfd_airfoil.extendedFeatureEdgeMesh;
}
// * * * * * * * * * * * * * * * * * * * * * * * * * * * * * * * * * * * * * //

// points

72
(
(-200 0 0)
(-200 1000 0)
(0 0 0)
(0 1000 0)
(-193.908 0 1.5408781)
(-193.908 1000 1.5408781)
(-188.9706 0 2.6346741)
(-188.9706 1000 2.6346741)
(-183.60291 0 3.6792231)
(-183.60291 1000 3.6792231)
(-177.00121 0 4.888237)
(-177.00121 1000 4.888237)
(-144.6559 0 10.30582)
(-144.6559 1000 10.30582)
(-112.7583 0 14.54154)
(-112.7583 1000 14.54154)
(-80.932182 0 17.36095)
(-80.932182 1000 17.36095)
(-64.202141 0 17.95537)
(-64.202141 1000 17.95537)
(-57.569649 0 18.00703)
(-57.569649 1000 18.00703)
(-52.021301 0 17.90103)
(-52.021301 1000 17.90103)
(-29.457211 0 15.94918)
(-29.457211 1000 15.94918)
(-23.529579 0 14.8551)
(-23.529579 1000 14.8551)
(-18.654221 0 13.69479)
(-18.654221 1000 13.69479)
(-11.05085 0 11.14293)
(-11.05085 1000 11.14293)
(-6.9969559 0 9.0703211)
(-6.9969559 1000 9.0703211)
(-3.931459 0 7.0725889)
(-3.931459 1000 7.0725889)
(-1.549758 0 4.4292011)
(-1.549758 1000 4.4292011)
(-1.549758 0 -4.4292011)
(-1.549758 1000 -4.4292011)
(-3.931459 0 -7.0725889)
(-3.931459 1000 -7.0725889)
(-6.9969559 0 -9.0703211)
(-6.9969559 1000 -9.0703211)
(-11.05085 0 -11.14293)
(-11.05085 1000 -11.14293)
(-18.654221 0 -13.69479)
(-18.654221 1000 -13.69479)
(-23.529579 0 -14.8551)
(-23.529579 1000 -14.8551)
(-29.457211 0 -15.94918)
(-29.457211 1000 -15.94918)
(-52.021301 0 -17.90103)
(-52.021301 1000 -17.90103)
(-57.569649 0 -18.00703)
(-57.569649 1000 -18.00703)
(-64.202141 0 -17.95537)
(-64.202141 1000 -17.95537)
(-80.932182 0 -17.36095)
(-80.932182 1000 -17.36095)
(-112.7583 0 -14.54154)
(-112.7583 1000 -14.54154)
(-144.6559 0 -10.30582)
(-144.6559 1000 -10.30582)
(-177.00121 0 -4.888237)
(-177.00121 1000 -4.888237)
(-183.60291 0 -3.6792231)
(-183.60291 1000 -3.6792231)
(-188.9706 0 -2.6346741)
(-188.9706 1000 -2.6346741)
(-193.908 0 -1.5408781)
(-193.908 1000 -1.5408781)
)

// edges

74
(
(1 0)
(0 4)
(5 1)
(4 6)
(7 5)
(6 8)
(9 7)
(8 10)
(11 9)
(10 12)
(13 11)
(12 14)
(15 13)
(14 16)
(17 15)
(16 18)
(19 17)
(18 20)
(21 19)
(20 22)
(23 21)
(22 24)
(25 23)
(24 26)
(27 25)
(26 28)
(29 27)
(28 30)
(31 29)
(30 32)
(33 31)
(32 34)
(35 33)
(34 36)
(37 35)
(36 2)
(2 3)
(3 37)
(2 38)
(39 3)
(38 40)
(41 39)
(40 42)
(43 41)
(42 44)
(45 43)
(44 46)
(47 45)
(46 48)
(49 47)
(48 50)
(51 49)
(50 52)
(53 51)
(52 54)
(55 53)
(54 56)
(57 55)
(56 58)
(59 57)
(58 60)
(61 59)
(60 62)
(63 61)
(62 64)
(65 63)
(64 66)
(67 65)
(66 68)
(69 67)
(68 70)
(71 69)
(70 0)
(1 71)
)

// concaveStart mixedStart nonFeatureStart
4 4 4
// internalStart flatStart openStart multipleStart
74 74 74 74
// normals

138
(
(-0.2452126 0 0.96946933)
(-0.2452126 0 -0.96946933)
(0 -1 0)
(-0.2452126 0 0.96946933)
(-0 1 0)
(-0.21628862 0 0.97632947)
(0 -1 0)
(-0.21628862 0 0.97632947)
(0 1 -0)
(-0.19101614 0 0.9815869)
(0 -1 0)
(-0.19101614 0 0.9815869)
(0 1 -0)
(-0.1801408 0 0.98364084)
(0 -1 0)
(-0.1801408 0 0.98364084)
(0 1 -0)
(-0.16519103 0 0.98626159)
(0 -1 0)
(-0.16519103 0 0.98626159)
(0 1 -0)
(-0.13163565 0 0.99129817)
(0 -1 0)
(-0.13163565 0 0.99129817)
(0 1 0)
(-0.088242363 0 0.99609903)
(0 -1 0)
(-0.088242363 0 0.99609903)
(0 1 0)
(-0.035507661 0 0.9993694)
(0 -1 0)
(-0.035507661 0 0.9993694)
(0 1 0)
(-0.0077887723 0 0.99996967)
(0 -1 0)
(-0.0077887723 0 0.99996967)
(0 1 0)
(0.019101464 0 0.99981755)
(0 -1 0)
(0.019101464 0 0.99981755)
(0 1 0)
(0.086180656 0 0.99627953)
(0 -1 0)
(0.086180656 0 0.99627953)
(0 1 0)
(0.18150705 0 0.98338964)
(0.18150705 0 0.98338964)
(0.23152802 0 0.97282824)
(0 -1 0)
(0.23152802 0 0.97282824)
(0 1 0)
(0.31818 0 0.94803032)
(0 -1 0)
(0.31818 0 0.94803032)
(0 1 0)
(0.45521879 0 0.89037961)
(0 -1 0)
(0.45521879 0 0.89037961)
(0 1 0)
(0.54597918 0 0.83779874)
(0 -1 0)
(0.54597918 0 0.83779874)
(0 1 0)
(0.74292342 0 0.66937642)
(0 -1 0)
(0.74292342 0 0.66937642)
(0 1 0)
(0.94388908 0 0.33026263)
(0 -1 0)
(0.94388908 0 0.33026263)
(0.94388908 0 -0.33026263)
(0 1 0)
(0 -1 0)
(0.94388908 0 -0.33026263)
(0 1 0)
(0.74292342 0 -0.66937642)
(0 -1 0)
(0.74292342 0 -0.66937642)
(0 1 0)
(0.54597918 0 -0.83779874)
(0 -1 0)
(0.54597918 0 -0.83779874)
(0 1 0)
(0.45521879 0 -0.89037961)
(0 -1 0)
(0.45521879 0 -0.89037961)
(0 1 0)
(0.31818 0 -0.94803032)
(0 -1 0)
(0.31818 0 -0.94803032)
(0 1 0)
(0.23152802 0 -0.97282824)
(0 -1 0)
(0.23152802 0 -0.97282824)
(0 1 0)
(0.18150705 0 -0.98338964)
(0 -1 0)
(0.18150705 0 -0.98338964)
(0 1 0)
(0.086180656 0 -0.99627953)
(0.086180656 0 -0.99627953)
(0.019101464 0 -0.99981755)
(0 -1 0)
(0.019101464 0 -0.99981755)
(0 1 0)
(-0.0077887723 -0 -0.99996967)
(0 -1 0)
(-0.0077887723 0 -0.99996967)
(-0 1 0)
(-0.035507661 -0 -0.9993694)
(0 -1 0)
(-0.035507661 0 -0.9993694)
(-0 1 0)
(-0.088242363 -0 -0.99609903)
(0 -1 0)
(-0.088242363 0 -0.99609903)
(-0 1 0)
(-0.13163565 -0 -0.99129817)
(0 -1 0)
(-0.13163565 0 -0.99129817)
(-0 1 0)
(-0.16519103 -0 -0.98626159)
(0 -1 -0)
(-0.16519103 0 -0.98626159)
(-0 1 0)
(-0.1801408 -0 -0.98364084)
(0 -1 -0)
(-0.1801408 0 -0.98364084)
(-0 1 0)
(-0.19101614 -0 -0.9815869)
(0 -1 -0)
(-0.19101614 0 -0.9815869)
(-0 1 0)
(-0.21628862 -0 -0.97632947)
(0 -1 -0)
(-0.21628862 0 -0.97632947)
(-0 1 0)
(-0.2452126 -0 -0.96946933)
)

// normal volume types

138
(
0
0
0
0
0
0
0
0
0
0
0
0
0
0
0
0
0
0
0
0
0
0
0
0
0
0
0
0
0
0
0
0
0
0
0
0
0
0
0
0
0
0
0
0
0
0
0
0
0
0
0
0
0
0
0
0
0
0
0
0
0
0
0
0
0
0
0
0
0
0
0
0
0
0
0
0
0
0
0
0
0
0
0
0
0
0
0
0
0
0
0
0
0
0
0
0
0
0
0
0
0
0
0
0
0
0
0
0
0
0
0
0
0
0
0
0
0
0
0
0
0
0
0
0
0
0
0
0
0
0
0
0
0
0
0
0
0
0
)

// normalDirections

74
(
2(1 -1)
2(1 -1)
2(1 -1)
2(1 -1)
2(1 -1)
2(1 -1)
2(1 -1)
2(1 -1)
2(1 -1)
2(1 -1)
2(1 -1)
2(1 -1)
2(1 -1)
2(1 -1)
2(1 -1)
2(1 -1)
2(1 -1)
2(1 -1)
2(1 -1)
2(1 -1)
2(1 -1)
2(1 -1)
2(1 -1)
2(1 -1)
2(1 -1)
2(1 -1)
2(1 -1)
2(1 -1)
2(1 -1)
2(1 -1)
2(1 -1)
2(1 -1)
2(1 -1)
2(1 -1)
2(1 -1)
2(1 -1)
2(1 -1)
2(1 -1)
2(1 -1)
2(1 -1)
2(1 -1)
2(1 -1)
2(1 -1)
2(1 -1)
2(1 -1)
2(1 -1)
2(1 -1)
2(1 -1)
2(1 -1)
2(1 -1)
2(1 -1)
2(1 -1)
2(1 -1)
2(1 -1)
2(1 -1)
2(1 -1)
2(1 -1)
2(1 -1)
2(1 -1)
2(1 -1)
2(1 -1)
2(1 -1)
2(1 -1)
2(1 -1)
2(1 -1)
2(1 -1)
2(1 -1)
2(1 -1)
2(1 -1)
2(1 -1)
2(1 -1)
2(1 -1)
2(1 -1)
2(1 -1)
)

// edgeNormals

74
(
2(0 1)
2(0 2)
2(3 4)
2(5 6)
2(7 8)
2(9 10)
2(11 12)
2(13 14)
2(15 16)
2(17 18)
2(19 20)
2(21 22)
2(23 24)
2(25 26)
2(27 28)
2(29 30)
2(31 32)
2(33 34)
2(35 36)
2(37 38)
2(39 40)
2(41 42)
2(43 44)
2(45 42)
2(46 44)
2(47 48)
2(49 50)
2(51 52)
2(53 54)
2(55 56)
2(57 58)
2(59 60)
2(61 62)
2(63 64)
2(65 66)
2(67 68)
2(69 70)
2(69 71)
2(70 72)
2(73 74)
2(75 76)
2(77 78)
2(79 80)
2(81 82)
2(83 84)
2(85 86)
2(87 88)
2(89 90)
2(91 92)
2(93 94)
2(95 96)
2(97 98)
2(99 96)
2(100 98)
2(101 102)
2(103 104)
2(105 106)
2(107 108)
2(109 110)
2(111 112)
2(113 114)
2(115 116)
2(117 118)
2(119 120)
2(121 122)
2(123 124)
2(125 126)
2(127 128)
2(129 130)
2(131 132)
2(133 134)
2(135 136)
2(137 2)
2(1 4)
)

// featurePointNormals

4
(
3(0 1 2)
3(0 1 4)
3(67 68 70)
3(69 70 71)
)

// featurePointEdges

4
(
3(0 72 1)
3(2 73 0)
3(36 38 35)
3(36 39 37)
)

// regionEdges
0()


// ************************************************************************* //
