/*--------------------------------*- C++ -*----------------------------------*\
| =========                 |                                                 |
| \\      /  F ield         | OpenFOAM: The Open Source CFD Toolbox           |
|  \\    /   O peration     | Version:  v2406                                 |
|   \\  /    A nd           | Website:  www.openfoam.com                      |
|    \\/     M anipulation  |                                                 |
\*---------------------------------------------------------------------------*/
FoamFile
{
    version     2.0;
    format      ascii;
    class       dictionary;
    object      blockMeshDict;
}
// * * * * * * * * * * * * * * * * * * * * * * * * * * * * * * * * * * * * * //

scale   1;

vertices
(
    (0 0 0) //0
    (2.4 0 0) //1
    (2.4 1 0) //2
    (0 1 0) //3
    (0 0 1) //4
    (2.4 0 1) //5
    (2.4 1 1) //6
    (0 1 1) // 7
);

blocks
(
    hex (0 1 2 3 4 5 6 7) (120 50 50) simpleGrading (1 1 1)
);

edges
(
);

boundary
(
    inlet
    {
      type patch;
      faces
      (
          (0 3 7 4)
      );
    }
    
    outlet
    {
      type patch;
      faces
      (
          (1 2 6 5)
      );
    }
    
    sides
    {
      type patch;
      faces
      (
          (0 1 5 4)
          (0 3 2 1)
          (2 3 7 6)
          (4 5 6 7)
      );
    }
);


// ************************************************************************* //
